
     RDKit          3D

 26 28  0  0  0  0  0  0  0  0999 V2000
    0.0721    1.0099   -0.2704 N   0  0  0  0  0  0  0  0  0  0  0  0
    0.4174    0.6636   -1.6300 C   0  0  0  0  0  0  0  0  0  0  0  0
    1.7904    0.0046   -1.7103 C   0  0  0  0  0  0  0  0  0  0  0  0
    1.8915   -1.1613   -2.0149 O   0  0  0  0  0  0  0  0  0  0  0  0
    0.3046    1.9693   -2.4286 C   0  0  0  0  0  0  0  0  0  0  0  0
    0.6459    3.0650   -1.4131 C   0  0  0  0  0  0  0  0  0  0  0  0
    0.3231    2.4158   -0.0683 C   0  0  0  0  0  0  0  0  0  0  0  0
    0.7519    2.8550    0.9978 O   0  0  0  0  0  0  0  0  0  0  0  0
    2.8795    0.7927   -1.3955 N   0  0  0  0  0  0  0  0  0  0  0  0
    4.2367    0.2892   -1.5122 C   0  0  0  0  0  0  0  0  0  0  0  0
    4.6300   -0.6682   -0.3773 C   0  0  0  0  0  0  0  0  0  0  0  0
    5.3662   -1.5937   -0.6374 O   0  0  0  0  0  0  0  0  0  0  0  0
    5.2057    1.4821   -1.6280 C   0  0  0  0  0  0  0  0  0  0  0  0
    6.6339    1.1225   -1.9249 C   0  0  0  0  0  0  0  0  0  0  0  0
    7.6746    1.8913   -1.5357 N   0  0  0  0  0  0  0  0  0  0  0  0
    7.0945    0.0263   -2.6528 C   0  0  0  0  0  0  0  0  0  0  0  0
    8.7172    1.1927   -2.0217 C   0  0  0  0  0  0  0  0  0  0  0  0
    8.4331    0.0665   -2.6893 N   0  0  0  0  0  0  0  0  0  0  0  0
    4.1759   -0.4906    0.9227 N   0  0  0  0  0  0  0  0  0  0  0  0
    4.5930   -1.4323    1.9541 C   0  0  0  0  0  0  0  0  0  0  0  0
    4.0812   -2.8564    1.7419 C   0  0  0  0  0  0  0  0  0  0  0  0
    4.3609   -3.7259    2.5366 O   0  0  0  0  0  0  0  0  0  0  0  0
    3.9779   -0.8057    3.2222 C   0  0  0  0  0  0  0  0  0  0  0  0
    3.8549    0.6860    2.8672 C   0  0  0  0  0  0  0  0  0  0  0  0
    3.4340    0.6631    1.3874 C   0  0  0  0  0  0  0  0  0  0  0  0
    3.2720   -3.1442    0.6945 O   0  0  0  0  0  0  0  0  0  0  0  0
  1  2  1  0
  1  7  1  0
  2  3  1  0
  2  5  1  0
  3  4  2  0
  3  9  1  0
  5  6  1  0
  6  7  1  0
  7  8  2  0
  9 10  1  0
 10 11  1  0
 10 13  1  0
 11 12  2  0
 11 19  1  0
 13 14  1  0
 14 16  2  0
 14 15  1  0
 15 17  2  0
 16 18  1  0
 17 18  1  0
 19 20  1  0
 19 25  1  0
 20 21  1  0
 20 23  1  0
 21 22  2  0
 21 26  1  0
 23 24  1  0
 24 25  1  0
M  END
