
     RDKit          3D

 55 56  0  0  0  0  0  0  0  0999 V2000
    0.5157    1.8424    0.7132 N   0  0  0  0  0  0  0  0  0  0  0  0
   -0.5930    2.0688    1.6712 C   0  0  0  0  0  0  0  0  0  0  0  0
   -1.8321    1.3020    1.2556 C   0  0  0  0  0  0  0  0  0  0  0  0
   -2.5135    0.7916    2.1456 O   0  0  0  0  0  0  0  0  0  0  0  0
   -0.9072    3.5819    1.8581 C   0  0  0  0  0  0  0  0  0  0  0  0
   -2.0454    3.7979    2.8346 C   0  0  0  0  0  0  0  0  0  0  0  0
   -3.3232    4.1584    2.3667 C   0  0  0  0  0  0  0  0  0  0  0  0
   -1.8577    3.5686    4.2113 C   0  0  0  0  0  0  0  0  0  0  0  0
   -4.3946    4.3037    3.2635 C   0  0  0  0  0  0  0  0  0  0  0  0
   -2.9287    3.7145    5.1087 C   0  0  0  0  0  0  0  0  0  0  0  0
   -4.2003    4.0849    4.6390 C   0  0  0  0  0  0  0  0  0  0  0  0
   -5.2196    4.2168    5.5211 O   0  0  0  0  0  0  0  0  0  0  0  0
   -2.2989    1.3094   -0.0861 N   0  0  0  0  0  0  0  0  0  0  0  0
   -3.5403    0.6707   -0.5194 C   0  0  0  0  0  0  0  0  0  0  0  0
   -3.7577   -0.6881    0.1179 C   0  0  0  0  0  0  0  0  0  0  0  0
   -4.8130   -0.9284    0.7067 O   0  0  0  0  0  0  0  0  0  0  0  0
   -4.7287    1.6404   -0.2810 C   0  0  0  0  0  0  0  0  0  0  0  0
   -2.7422   -1.6778    0.0476 N   0  0  0  0  0  0  0  0  0  0  0  0
   -2.9395   -3.0418    0.5293 C   0  0  0  0  0  0  0  0  0  0  0  0
   -2.2985   -3.2612    1.8848 C   0  0  0  0  0  0  0  0  0  0  0  0
   -2.6993   -4.2086    2.5629 O   0  0  0  0  0  0  0  0  0  0  0  0
   -2.4031   -4.0505   -0.5255 C   0  0  0  0  0  0  0  0  0  0  0  0
   -2.8514   -5.4649   -0.2231 C   0  0  0  0  0  0  0  0  0  0  0  0
   -1.9729   -6.3796    0.3884 C   0  0  0  0  0  0  0  0  0  0  0  0
   -4.1770   -5.8581   -0.4918 C   0  0  0  0  0  0  0  0  0  0  0  0
   -2.4083   -7.6761    0.7096 C   0  0  0  0  0  0  0  0  0  0  0  0
   -4.6130   -7.1546   -0.1709 C   0  0  0  0  0  0  0  0  0  0  0  0
   -3.7272   -8.0661    0.4260 C   0  0  0  0  0  0  0  0  0  0  0  0
   -1.4353   -2.3002    2.4750 N   0  0  0  0  0  0  0  0  0  0  0  0
   -1.1811   -2.2610    3.9161 C   0  0  0  0  0  0  0  0  0  0  0  0
   -2.4697   -2.3215    4.7126 C   0  0  0  0  0  0  0  0  0  0  0  0
   -2.5396   -3.0899    5.6731 O   0  0  0  0  0  0  0  0  0  0  0  0
   -0.3999   -0.9721    4.3000 C   0  0  0  0  0  0  0  0  0  0  0  0
   -0.0605   -0.9372    5.7689 C   0  0  0  0  0  0  0  0  0  0  0  0
    0.9339   -1.5312    6.1872 O   0  0  0  0  0  0  0  0  0  0  0  0
   -0.8117   -0.1881    6.6110 O   0  0  0  0  0  0  0  0  0  0  0  0
   -3.5815   -1.5206    4.3508 N   0  0  0  0  0  0  0  0  0  0  0  0
   -4.6847   -1.2509    5.2663 C   0  0  0  0  0  0  0  0  0  0  0  0
   -5.8461   -2.1906    5.0104 C   0  0  0  0  0  0  0  0  0  0  0  0
   -6.4181   -2.6823    5.9853 O   0  0  0  0  0  0  0  0  0  0  0  0
   -5.0971    0.2568    5.2147 C   0  0  0  0  0  0  0  0  0  0  0  0
   -5.8164    0.6647    3.8979 C   0  0  0  0  0  0  0  0  0  0  0  0
   -5.9787    0.6371    6.4371 C   0  0  0  0  0  0  0  0  0  0  0  0
   -6.1956   -2.6169    3.7011 N   0  0  0  0  0  0  0  0  0  0  0  0
   -7.4076   -3.3909    3.4376 C   0  0  0  0  0  0  0  0  0  0  0  0
   -7.1167   -4.8764    3.5201 C   0  0  0  0  0  0  0  0  0  0  0  0
   -7.9180   -5.5920    4.1240 O   0  0  0  0  0  0  0  0  0  0  0  0
   -8.0804   -2.9682    2.0911 C   0  0  0  0  0  0  0  0  0  0  0  0
   -7.3240   -3.4647    0.8276 C   0  0  0  0  0  0  0  0  0  0  0  0
   -9.5601   -3.4412    2.0353 C   0  0  0  0  0  0  0  0  0  0  0  0
   -5.8546   -5.3971    3.1331 N   0  0  0  0  0  0  0  0  0  0  0  0
   -5.2873   -6.5979    3.7273 C   0  0  0  0  0  0  0  0  0  0  0  0
   -4.2127   -6.2181    4.7143 C   0  0  0  0  0  0  0  0  0  0  0  0
   -3.0310   -6.4422    4.4485 O   0  0  0  0  0  0  0  0  0  0  0  0
   -4.5515   -5.6805    5.9741 N   0  0  0  0  0  0  0  0  0  0  0  0
  1  2  1  0
  2  3  1  0
  2  5  1  0
  3  4  2  0
  3 13  1  0
  5  6  1  0
  6  7  2  0
  6  8  1  0
  7  9  1  0
  8 10  2  0
  9 11  2  0
 10 11  1  0
 11 12  1  0
 13 14  1  0
 14 15  1  0
 14 17  1  0
 15 16  2  0
 15 18  1  0
 18 19  1  0
 19 20  1  0
 19 22  1  0
 20 21  2  0
 20 29  1  0
 22 23  1  0
 23 24  2  0
 23 25  1  0
 24 26  1  0
 25 27  2  0
 26 28  2  0
 27 28  1  0
 29 30  1  0
 30 31  1  0
 30 33  1  0
 31 32  2  0
 31 37  1  0
 33 34  1  0
 34 35  2  0
 34 36  1  0
 37 38  1  0
 38 39  1  0
 38 41  1  0
 39 40  2  0
 39 44  1  0
 41 42  1  0
 41 43  1  0
 44 45  1  0
 45 46  1  0
 45 48  1  0
 46 47  2  0
 46 51  1  0
 48 49  1  0
 48 50  1  0
 51 52  1  0
 52 53  1  0
 53 54  2  0
 53 55  1  0
M  END
