
     RDKit          3D

 80 86  0  0  0  0  0  0  0  0999 V2000
   -4.3147    1.9402   -2.1965 N   0  0  0  0  0  0  0  0  0  0  0  0
   -4.4315    2.1499   -0.7717 C   0  0  0  0  0  0  0  0  0  0  0  0
   -5.1746    0.9985   -0.1107 C   0  0  0  0  0  0  0  0  0  0  0  0
   -6.0499    1.2030    0.6972 O   0  0  0  0  0  0  0  0  0  0  0  0
   -3.0287    2.3037   -0.1605 C   0  0  0  0  0  0  0  0  0  0  0  0
   -3.1034    2.4850    1.3397 C   0  0  0  0  0  0  0  0  0  0  0  0
   -2.7409    1.4520    2.2116 C   0  0  0  0  0  0  0  0  0  0  0  0
   -3.5564    3.6904    1.8879 C   0  0  0  0  0  0  0  0  0  0  0  0
   -2.8170    1.6213    3.5950 C   0  0  0  0  0  0  0  0  0  0  0  0
   -3.6379    3.8658    3.2703 C   0  0  0  0  0  0  0  0  0  0  0  0
   -3.2595    2.8324    4.1280 C   0  0  0  0  0  0  0  0  0  0  0  0
   -4.7600   -0.2691   -0.4717 N   0  0  0  0  0  0  0  0  0  0  0  0
   -5.3553   -1.4418    0.1408 C   0  0  0  0  0  0  0  0  0  0  0  0
   -4.4825   -1.9464    1.2831 C   0  0  0  0  0  0  0  0  0  0  0  0
   -4.9736   -2.2670    2.3358 O   0  0  0  0  0  0  0  0  0  0  0  0
   -5.5831   -2.5377   -0.9178 C   0  0  0  0  0  0  0  0  0  0  0  0
   -6.7414   -3.7860   -0.3563 S   0  0  0  0  0  0  0  0  0  0  0  0
   -3.1416   -2.0555    0.9964 N   0  0  0  0  0  0  0  0  0  0  0  0
   -2.2226   -2.8186    1.8180 C   0  0  0  0  0  0  0  0  0  0  0  0
   -2.0112   -2.2038    3.2000 C   0  0  0  0  0  0  0  0  0  0  0  0
   -1.0432   -1.5184    3.4309 O   0  0  0  0  0  0  0  0  0  0  0  0
   -0.9259   -3.0250    1.0133 C   0  0  0  0  0  0  0  0  0  0  0  0
   -1.2708   -3.6779   -0.3090 C   0  0  0  0  0  0  0  0  0  0  0  0
   -1.5617   -5.0441   -0.3754 C   0  0  0  0  0  0  0  0  0  0  0  0
   -1.3658   -2.9283   -1.4859 C   0  0  0  0  0  0  0  0  0  0  0  0
   -1.9317   -5.6402   -1.5817 C   0  0  0  0  0  0  0  0  0  0  0  0
   -1.7371   -3.5301   -2.6892 C   0  0  0  0  0  0  0  0  0  0  0  0
   -2.0268   -4.8956   -2.7608 C   0  0  0  0  0  0  0  0  0  0  0  0
   -2.3956   -5.4742   -3.9339 O   0  0  0  0  0  0  0  0  0  0  0  0
   -2.9741   -2.5351    4.1328 N   0  0  0  0  0  0  0  0  0  0  0  0
   -2.9198   -2.0915    5.5130 C   0  0  0  0  0  0  0  0  0  0  0  0
   -4.2736   -1.5019    5.9169 C   0  0  0  0  0  0  0  0  0  0  0  0
   -4.6197   -1.4687    7.0743 O   0  0  0  0  0  0  0  0  0  0  0  0
   -2.4637   -3.2573    6.4067 C   0  0  0  0  0  0  0  0  0  0  0  0
   -2.0786   -2.8224    7.7885 C   0  0  0  0  0  0  0  0  0  0  0  0
   -2.7720   -3.0400    8.9820 C   0  0  0  0  0  0  0  0  0  0  0  0
   -0.9420   -2.1172    8.1817 C   0  0  0  0  0  0  0  0  0  0  0  0
   -2.1255   -2.5225    9.9453 N   0  0  0  0  0  0  0  0  0  0  0  0
   -1.0498   -1.9677    9.5632 C   0  0  0  0  0  0  0  0  0  0  0  0
    0.1425   -1.6112    7.4727 C   0  0  0  0  0  0  0  0  0  0  0  0
   -0.0709   -1.2975   10.2903 C   0  0  0  0  0  0  0  0  0  0  0  0
    1.1289   -0.9363    8.1993 C   0  0  0  0  0  0  0  0  0  0  0  0
    1.0231   -0.7811    9.5874 C   0  0  0  0  0  0  0  0  0  0  0  0
   -5.0457   -1.0171    4.8794 N   0  0  0  0  0  0  0  0  0  0  0  0
   -6.3616   -0.4431    5.0987 C   0  0  0  0  0  0  0  0  0  0  0  0
   -7.4565   -1.3834    4.5870 C   0  0  0  0  0  0  0  0  0  0  0  0
   -8.0701   -2.0922    5.3504 O   0  0  0  0  0  0  0  0  0  0  0  0
   -6.3980    0.9459    4.4384 C   0  0  0  0  0  0  0  0  0  0  0  0
   -7.7321    1.6847    4.6210 C   0  0  0  0  0  0  0  0  0  0  0  0
   -7.7388    3.0208    3.8601 C   0  0  0  0  0  0  0  0  0  0  0  0
   -9.0905    3.7332    3.9881 C   0  0  0  0  0  0  0  0  0  0  0  0
   -8.9716    5.0107    3.2095 N   0  0  0  0  0  0  0  0  0  0  0  0
   -7.7037   -1.3868    3.2282 N   0  0  0  0  0  0  0  0  0  0  0  0
   -8.8576   -2.0948    2.6842 C   0  0  0  0  0  0  0  0  0  0  0  0
   -8.5736   -3.5916    2.5313 C   0  0  0  0  0  0  0  0  0  0  0  0
   -9.4684   -4.3910    2.3867 O   0  0  0  0  0  0  0  0  0  0  0  0
   -9.3229   -1.4210    1.3720 C   0  0  0  0  0  0  0  0  0  0  0  0
  -10.6157   -2.0367    0.8089 C   0  0  0  0  0  0  0  0  0  0  0  0
   -9.5236    0.0939    1.5641 C   0  0  0  0  0  0  0  0  0  0  0  0
   -7.2442   -3.9535    2.5725 N   0  0  0  0  0  0  0  0  0  0  0  0
   -6.8086   -5.3351    2.4797 C   0  0  0  0  0  0  0  0  0  0  0  0
   -6.7239   -5.9550    3.8794 C   0  0  0  0  0  0  0  0  0  0  0  0
   -6.3497   -7.0976    4.0080 O   0  0  0  0  0  0  0  0  0  0  0  0
   -5.4470   -5.4237    1.7547 C   0  0  0  0  0  0  0  0  0  0  0  0
   -5.4745   -5.3416   -0.0365 S   0  0  0  0  0  0  0  0  0  0  0  0
   -7.0724   -5.1506    4.9466 N   0  0  0  0  0  0  0  0  0  0  0  0
   -7.0519   -5.6477    6.3118 C   0  0  0  0  0  0  0  0  0  0  0  0
   -8.4068   -6.2402    6.7143 C   0  0  0  0  0  0  0  0  0  0  0  0
   -8.5094   -6.9356    7.7006 O   0  0  0  0  0  0  0  0  0  0  0  0
   -6.6106   -4.5195    7.2588 C   0  0  0  0  0  0  0  0  0  0  0  0
   -6.3725   -4.9887    8.6620 C   0  0  0  0  0  0  0  0  0  0  0  0
   -7.1333   -4.6952    9.7972 C   0  0  0  0  0  0  0  0  0  0  0  0
   -5.3432   -5.7980    9.1407 C   0  0  0  0  0  0  0  0  0  0  0  0
   -6.6141   -5.2653   10.8071 N   0  0  0  0  0  0  0  0  0  0  0  0
   -5.5701   -5.9232   10.5105 C   0  0  0  0  0  0  0  0  0  0  0  0
   -4.2578   -6.4076    8.5204 C   0  0  0  0  0  0  0  0  0  0  0  0
   -4.7168   -6.6738   11.3130 C   0  0  0  0  0  0  0  0  0  0  0  0
   -3.3978   -7.1640    9.3229 C   0  0  0  0  0  0  0  0  0  0  0  0
   -3.6244   -7.2957   10.6986 C   0  0  0  0  0  0  0  0  0  0  0  0
   -9.5714   -5.9766    5.9595 N   0  0  0  0  0  0  0  0  0  0  0  0
  1  2  1  0
  2  3  1  0
  2  5  1  0
  3  4  2  0
  3 12  1  0
  5  6  1  0
  6  7  2  0
  6  8  1  0
  7  9  1  0
  8 10  2  0
  9 11  2  0
 10 11  1  0
 12 13  1  0
 13 14  1  0
 13 16  1  0
 14 15  2  0
 14 18  1  0
 16 17  1  0
 17 65  1  0
 18 19  1  0
 19 20  1  0
 19 22  1  0
 20 21  2  0
 20 30  1  0
 22 23  1  0
 23 24  2  0
 23 25  1  0
 24 26  1  0
 25 27  2  0
 26 28  2  0
 27 28  1  0
 28 29  1  0
 30 31  1  0
 31 32  1  0
 31 34  1  0
 32 33  2  0
 32 44  1  0
 34 35  1  0
 35 36  2  0
 35 37  1  0
 36 38  1  0
 37 39  2  0
 37 40  1  0
 38 39  1  0
 39 41  1  0
 40 42  2  0
 41 43  2  0
 42 43  1  0
 44 45  1  0
 45 46  1  0
 45 48  1  0
 46 47  2  0
 46 53  1  0
 48 49  1  0
 49 50  1  0
 50 51  1  0
 51 52  1  0
 53 54  1  0
 54 55  1  0
 54 57  1  0
 55 56  2  0
 55 60  1  0
 57 58  1  0
 57 59  1  0
 60 61  1  0
 61 62  1  0
 61 64  1  0
 62 63  2  0
 62 66  1  0
 64 65  1  0
 66 67  1  0
 67 68  1  0
 67 70  1  0
 68 69  2  0
 68 80  1  0
 70 71  1  0
 71 72  2  0
 71 73  1  0
 72 74  1  0
 73 75  2  0
 73 76  1  0
 74 75  1  0
 75 77  1  0
 76 78  2  0
 77 79  2  0
 78 79  1  0
M  END
