
     RDKit          3D

206209  0  0  0  0  0  0  0  0999 V2000
   -0.5734    1.5172    0.2518 N   0  0  0  0  0  0  0  0  0  0  0  0
   -1.2170    2.3608    1.2871 C   0  0  0  0  0  0  0  0  0  0  0  0
   -2.7209    2.1504    1.3026 C   0  0  0  0  0  0  0  0  0  0  0  0
   -3.2360    1.8582    2.3834 O   0  0  0  0  0  0  0  0  0  0  0  0
   -0.8218    3.8599    1.1462 C   0  0  0  0  0  0  0  0  0  0  0  0
   -1.3922    4.7288    2.2998 C   0  0  0  0  0  0  0  0  0  0  0  0
   -0.9640    6.2116    2.1590 C   0  0  0  0  0  0  0  0  0  0  0  0
   -1.4909    6.9918    3.2708 N   0  0  0  0  0  0  0  0  0  0  0  0
   -2.6834    7.7564    3.1870 C   0  0  0  0  0  0  0  0  0  0  0  0
   -3.5044    2.0387    0.1171 N   0  0  0  0  0  0  0  0  0  0  0  0
   -4.7464    1.2581    0.0912 C   0  0  0  0  0  0  0  0  0  0  0  0
   -4.5390   -0.1217   -0.5015 C   0  0  0  0  0  0  0  0  0  0  0  0
   -5.5337   -0.7960   -0.7778 O   0  0  0  0  0  0  0  0  0  0  0  0
   -5.6916    2.1258   -0.7825 C   0  0  0  0  0  0  0  0  0  0  0  0
   -4.7372    2.8458   -1.7591 C   0  0  0  0  0  0  0  0  0  0  0  0
   -3.4601    3.0692   -0.9176 C   0  0  0  0  0  0  0  0  0  0  0  0
   -3.2562   -0.7246   -0.5492 N   0  0  0  0  0  0  0  0  0  0  0  0
   -3.0260   -2.0290   -1.1489 C   0  0  0  0  0  0  0  0  0  0  0  0
   -2.9543   -3.0768   -0.0643 C   0  0  0  0  0  0  0  0  0  0  0  0
   -3.9745   -3.7251    0.1716 O   0  0  0  0  0  0  0  0  0  0  0  0
   -1.7759   -3.2987    0.7050 N   0  0  0  0  0  0  0  0  0  0  0  0
   -1.7785   -4.2083    1.8474 C   0  0  0  0  0  0  0  0  0  0  0  0
   -2.4409   -3.6389    3.0875 C   0  0  0  0  0  0  0  0  0  0  0  0
   -3.1252   -4.4215    3.7501 O   0  0  0  0  0  0  0  0  0  0  0  0
   -0.2963   -4.5922    2.0973 C   0  0  0  0  0  0  0  0  0  0  0  0
    0.5477   -3.7844    1.0835 C   0  0  0  0  0  0  0  0  0  0  0  0
   -0.4557   -3.1183    0.1146 C   0  0  0  0  0  0  0  0  0  0  0  0
   -2.4394   -2.2572    3.4484 N   0  0  0  0  0  0  0  0  0  0  0  0
   -3.2289   -1.7649    4.5828 C   0  0  0  0  0  0  0  0  0  0  0  0
   -4.6969   -1.5706    4.2778 C   0  0  0  0  0  0  0  0  0  0  0  0
   -5.4812   -1.5299    5.2274 O   0  0  0  0  0  0  0  0  0  0  0  0
   -2.5731   -0.4163    4.9810 C   0  0  0  0  0  0  0  0  0  0  0  0
   -1.1606   -0.4848    4.3644 C   0  0  0  0  0  0  0  0  0  0  0  0
   -1.3589   -1.3432    3.0957 C   0  0  0  0  0  0  0  0  0  0  0  0
   -5.1789   -1.4393    2.9496 N   0  0  0  0  0  0  0  0  0  0  0  0
   -6.6012   -1.4261    2.6328 C   0  0  0  0  0  0  0  0  0  0  0  0
   -7.1512   -2.8003    2.3229 C   0  0  0  0  0  0  0  0  0  0  0  0
   -8.3710   -2.9138    2.1940 O   0  0  0  0  0  0  0  0  0  0  0  0
   -6.3186   -3.9484    2.2732 N   0  0  0  0  0  0  0  0  0  0  0  0
   -6.8328   -5.3131    2.3679 C   0  0  0  0  0  0  0  0  0  0  0  0
   -6.7346   -5.8335    3.7911 C   0  0  0  0  0  0  0  0  0  0  0  0
   -7.3894   -6.8328    4.0898 O   0  0  0  0  0  0  0  0  0  0  0  0
   -6.0390   -6.2028    1.3645 C   0  0  0  0  0  0  0  0  0  0  0  0
   -6.5319   -7.6774    1.2312 C   0  0  0  0  0  0  0  0  0  0  0  0
   -8.0130   -7.7765    0.7714 C   0  0  0  0  0  0  0  0  0  0  0  0
   -5.6193   -8.4407    0.2313 C   0  0  0  0  0  0  0  0  0  0  0  0
   -6.1313   -5.0729    4.8268 N   0  0  0  0  0  0  0  0  0  0  0  0
   -6.0741   -5.5184    6.2154 C   0  0  0  0  0  0  0  0  0  0  0  0
   -7.2871   -5.0341    6.9838 C   0  0  0  0  0  0  0  0  0  0  0  0
   -7.7922   -5.7995    7.8064 O   0  0  0  0  0  0  0  0  0  0  0  0
   -4.7554   -5.0036    6.8594 C   0  0  0  0  0  0  0  0  0  0  0  0
   -4.5284   -5.5434    8.2956 C   0  0  0  0  0  0  0  0  0  0  0  0
   -3.1900   -5.0838    8.8203 C   0  0  0  0  0  0  0  0  0  0  0  0
   -2.2392   -5.8667    8.8342 O   0  0  0  0  0  0  0  0  0  0  0  0
   -3.0254   -3.7819    9.3398 N   0  0  0  0  0  0  0  0  0  0  0  0
   -7.8949   -3.7804    6.7078 N   0  0  0  0  0  0  0  0  0  0  0  0
   -9.1652   -3.3723    7.2921 C   0  0  0  0  0  0  0  0  0  0  0  0
  -10.3527   -3.6979    6.4134 C   0  0  0  0  0  0  0  0  0  0  0  0
  -11.4790   -3.5024    6.8728 O   0  0  0  0  0  0  0  0  0  0  0  0
  -10.2026   -4.2869    5.1307 N   0  0  0  0  0  0  0  0  0  0  0  0
  -11.2910   -4.9941    4.4571 C   0  0  0  0  0  0  0  0  0  0  0  0
  -11.4308   -6.4057    4.9915 C   0  0  0  0  0  0  0  0  0  0  0  0
  -12.5603   -6.8902    5.0737 O   0  0  0  0  0  0  0  0  0  0  0  0
  -11.0166   -5.0046    2.9263 C   0  0  0  0  0  0  0  0  0  0  0  0
  -12.1427   -5.6785    2.0994 C   0  0  0  0  0  0  0  0  0  0  0  0
  -11.8308   -5.6126    0.5821 C   0  0  0  0  0  0  0  0  0  0  0  0
  -12.8339   -6.3554   -0.1683 N   0  0  0  0  0  0  0  0  0  0  0  0
  -12.6279   -7.6804   -0.6337 C   0  0  0  0  0  0  0  0  0  0  0  0
  -10.3106   -7.1219    5.4852 N   0  0  0  0  0  0  0  0  0  0  0  0
  -10.3986   -8.4842    6.0046 C   0  0  0  0  0  0  0  0  0  0  0  0
  -10.6845   -8.4879    7.4947 C   0  0  0  0  0  0  0  0  0  0  0  0
  -11.2017   -9.4953    7.9797 O   0  0  0  0  0  0  0  0  0  0  0  0
   -9.0680   -9.2230    5.6711 C   0  0  0  0  0  0  0  0  0  0  0  0
   -9.0134  -10.7285    6.0737 C   0  0  0  0  0  0  0  0  0  0  0  0
  -10.1023  -11.5756    5.3591 C   0  0  0  0  0  0  0  0  0  0  0  0
   -7.6051  -11.3015    5.7522 C   0  0  0  0  0  0  0  0  0  0  0  0
  -10.5784   -7.3103    8.2807 N   0  0  0  0  0  0  0  0  0  0  0  0
  -11.0559   -7.2265    9.6587 C   0  0  0  0  0  0  0  0  0  0  0  0
  -12.4846   -6.7183    9.7123 C   0  0  0  0  0  0  0  0  0  0  0  0
  -13.1810   -7.0534   10.6711 O   0  0  0  0  0  0  0  0  0  0  0  0
  -10.0967   -6.3049   10.4656 C   0  0  0  0  0  0  0  0  0  0  0  0
  -10.3582   -6.3433   11.9943 C   0  0  0  0  0  0  0  0  0  0  0  0
   -9.3324   -5.5095   12.7219 C   0  0  0  0  0  0  0  0  0  0  0  0
   -8.3536   -6.0563   13.2320 O   0  0  0  0  0  0  0  0  0  0  0  0
   -9.5169   -4.1203   12.8885 N   0  0  0  0  0  0  0  0  0  0  0  0
  -13.0810   -6.0407    8.6158 N   0  0  0  0  0  0  0  0  0  0  0  0
  -14.5213   -5.8112    8.5161 C   0  0  0  0  0  0  0  0  0  0  0  0
  -15.2478   -7.0582    8.0474 C   0  0  0  0  0  0  0  0  0  0  0  0
  -16.3978   -7.2482    8.4471 O   0  0  0  0  0  0  0  0  0  0  0  0
  -14.7788   -4.6194    7.5486 C   0  0  0  0  0  0  0  0  0  0  0  0
  -16.2671   -4.1803    7.5073 C   0  0  0  0  0  0  0  0  0  0  0  0
  -16.4640   -2.9507    6.5840 C   0  0  0  0  0  0  0  0  0  0  0  0
  -17.8685   -2.5643    6.5562 N   0  0  0  0  0  0  0  0  0  0  0  0
  -18.7386   -2.8633    5.4756 C   0  0  0  0  0  0  0  0  0  0  0  0
  -18.3124   -3.5143    4.4482 N   0  0  0  0  0  0  0  0  0  0  0  0
  -14.5867   -8.0658    7.2989 N   0  0  0  0  0  0  0  0  0  0  0  0
  -15.2375   -9.3081    6.8889 C   0  0  0  0  0  0  0  0  0  0  0  0
  -15.1898  -10.3392    7.9993 C   0  0  0  0  0  0  0  0  0  0  0  0
  -16.1483  -11.1027    8.1249 O   0  0  0  0  0  0  0  0  0  0  0  0
  -14.5425   -9.8364    5.5987 C   0  0  0  0  0  0  0  0  0  0  0  0
  -15.1591  -11.1359    4.9965 C   0  0  0  0  0  0  0  0  0  0  0  0
  -16.6308  -10.9377    4.5408 C   0  0  0  0  0  0  0  0  0  0  0  0
  -14.2956  -11.6143    3.7962 C   0  0  0  0  0  0  0  0  0  0  0  0
  -14.1625  -10.3252    8.9779 N   0  0  0  0  0  0  0  0  0  0  0  0
  -14.1220  -11.2520   10.1066 C   0  0  0  0  0  0  0  0  0  0  0  0
  -14.8469  -10.6805   11.3125 C   0  0  0  0  0  0  0  0  0  0  0  0
  -15.2461  -11.4641   12.1756 O   0  0  0  0  0  0  0  0  0  0  0  0
  -12.6283  -11.5651   10.4210 C   0  0  0  0  0  0  0  0  0  0  0  0
  -12.3839  -12.6565   11.5080 C   0  0  0  0  0  0  0  0  0  0  0  0
  -12.9683  -14.0389   11.1062 C   0  0  0  0  0  0  0  0  0  0  0  0
  -10.8588  -12.7896   11.7757 C   0  0  0  0  0  0  0  0  0  0  0  0
  -15.2938   -9.3326   11.3399 N   0  0  0  0  0  0  0  0  0  0  0  0
  -16.2316   -8.8252   12.3381 C   0  0  0  0  0  0  0  0  0  0  0  0
  -17.6584   -9.1666   11.9564 C   0  0  0  0  0  0  0  0  0  0  0  0
  -18.4355   -9.5018   12.8516 O   0  0  0  0  0  0  0  0  0  0  0  0
  -16.0415   -7.2873   12.4757 C   0  0  0  0  0  0  0  0  0  0  0  0
  -16.9175   -6.6593   13.5910 C   0  0  0  0  0  0  0  0  0  0  0  0
  -16.6255   -5.1837   13.7134 C   0  0  0  0  0  0  0  0  0  0  0  0
  -15.9072   -4.7780   14.6280 O   0  0  0  0  0  0  0  0  0  0  0  0
  -17.2017   -4.2564   12.8187 N   0  0  0  0  0  0  0  0  0  0  0  0
  -18.0607   -9.2496   10.5978 N   0  0  0  0  0  0  0  0  0  0  0  0
  -19.4061   -9.6448   10.1943 C   0  0  0  0  0  0  0  0  0  0  0  0
  -19.5497  -11.1495   10.0700 C   0  0  0  0  0  0  0  0  0  0  0  0
  -20.6879  -11.6194   10.0176 O   0  0  0  0  0  0  0  0  0  0  0  0
  -19.7583   -8.9632    8.8464 C   0  0  0  0  0  0  0  0  0  0  0  0
  -18.4312  -12.0185   10.1671 N   0  0  0  0  0  0  0  0  0  0  0  0
  -18.5592  -13.4710   10.2353 C   0  0  0  0  0  0  0  0  0  0  0  0
  -18.7309  -13.9305   11.6694 C   0  0  0  0  0  0  0  0  0  0  0  0
  -19.4695  -14.8930   11.8841 O   0  0  0  0  0  0  0  0  0  0  0  0
  -17.3104  -14.1316    9.5873 C   0  0  0  0  0  0  0  0  0  0  0  0
  -17.4337  -15.6353    9.5318 C   0  0  0  0  0  0  0  0  0  0  0  0
  -18.0179  -16.1624    8.5841 O   0  0  0  0  0  0  0  0  0  0  0  0
  -16.8102  -16.4494   10.5018 N   0  0  0  0  0  0  0  0  0  0  0  0
  -18.1476  -13.2236   12.7540 N   0  0  0  0  0  0  0  0  0  0  0  0
  -18.4262  -13.5466   14.1454 C   0  0  0  0  0  0  0  0  0  0  0  0
  -19.6021  -12.7776   14.7050 C   0  0  0  0  0  0  0  0  0  0  0  0
  -19.9493  -13.0227   15.8615 O   0  0  0  0  0  0  0  0  0  0  0  0
  -20.3466  -11.8626   13.9154 N   0  0  0  0  0  0  0  0  0  0  0  0
  -21.6550  -11.3508   14.3132 C   0  0  0  0  0  0  0  0  0  0  0  0
  -22.7696  -12.2087   13.7465 C   0  0  0  0  0  0  0  0  0  0  0  0
  -23.8293  -12.2668   14.3723 O   0  0  0  0  0  0  0  0  0  0  0  0
  -21.7953   -9.8761   13.8416 C   0  0  0  0  0  0  0  0  0  0  0  0
  -23.0573   -9.2347   14.3669 C   0  0  0  0  0  0  0  0  0  0  0  0
  -23.0632   -8.7421   15.4960 O   0  0  0  0  0  0  0  0  0  0  0  0
  -24.2021   -9.1095   13.5509 N   0  0  0  0  0  0  0  0  0  0  0  0
  -22.5836  -13.0139   12.5912 N   0  0  0  0  0  0  0  0  0  0  0  0
  -23.5528  -14.0224   12.1739 C   0  0  0  0  0  0  0  0  0  0  0  0
  -23.3228  -15.3460   12.8772 C   0  0  0  0  0  0  0  0  0  0  0  0
  -24.2775  -16.1194   12.9629 O   0  0  0  0  0  0  0  0  0  0  0  0
  -23.4911  -14.2010   10.6298 C   0  0  0  0  0  0  0  0  0  0  0  0
  -24.5224  -15.1823   10.1440 C   0  0  0  0  0  0  0  0  0  0  0  0
  -24.2929  -16.4830    9.8381 N   0  0  0  0  0  0  0  0  0  0  0  0
  -25.9041  -14.9661   10.0512 C   0  0  0  0  0  0  0  0  0  0  0  0
  -25.5079  -17.0120    9.5474 C   0  0  0  0  0  0  0  0  0  0  0  0
  -26.4539  -16.1028    9.6804 N   0  0  0  0  0  0  0  0  0  0  0  0
  -22.1152  -15.6525   13.5563 N   0  0  0  0  0  0  0  0  0  0  0  0
  -21.9688  -16.8592   14.3647 C   0  0  0  0  0  0  0  0  0  0  0  0
  -22.5475  -16.6638   15.7509 C   0  0  0  0  0  0  0  0  0  0  0  0
  -23.1258  -17.6143   16.2799 O   0  0  0  0  0  0  0  0  0  0  0  0
  -20.4777  -17.2684   14.4667 C   0  0  0  0  0  0  0  0  0  0  0  0
  -22.5484  -15.3896   16.3771 N   0  0  0  0  0  0  0  0  0  0  0  0
  -23.1931  -15.1446   17.6629 C   0  0  0  0  0  0  0  0  0  0  0  0
  -24.6571  -14.7858   17.5091 C   0  0  0  0  0  0  0  0  0  0  0  0
  -25.3891  -14.9146   18.4914 O   0  0  0  0  0  0  0  0  0  0  0  0
  -22.4483  -14.0078   18.4099 C   0  0  0  0  0  0  0  0  0  0  0  0
  -25.2139  -14.4088   16.2601 N   0  0  0  0  0  0  0  0  0  0  0  0
  -26.6246  -14.0955   16.0862 C   0  0  0  0  0  0  0  0  0  0  0  0
  -27.4379  -15.3065   15.6897 C   0  0  0  0  0  0  0  0  0  0  0  0
  -28.6351  -15.3175   15.9805 O   0  0  0  0  0  0  0  0  0  0  0  0
  -26.8384  -16.4348   15.0689 N   0  0  0  0  0  0  0  0  0  0  0  0
  -27.5540  -17.6892   14.8390 C   0  0  0  0  0  0  0  0  0  0  0  0
  -27.3219  -18.6724   15.9733 C   0  0  0  0  0  0  0  0  0  0  0  0
  -28.0720  -19.6455   16.0660 O   0  0  0  0  0  0  0  0  0  0  0  0
  -27.1668  -18.2738   13.4377 C   0  0  0  0  0  0  0  0  0  0  0  0
  -28.2970  -19.2033   12.8936 C   0  0  0  0  0  0  0  0  0  0  0  0
  -25.7915  -19.0039   13.4606 C   0  0  0  0  0  0  0  0  0  0  0  0
  -28.1181  -19.5759   11.4009 C   0  0  0  0  0  0  0  0  0  0  0  0
  -26.3822  -18.4116   17.0058 N   0  0  0  0  0  0  0  0  0  0  0  0
  -26.3379  -19.1784   18.2489 C   0  0  0  0  0  0  0  0  0  0  0  0
  -27.4089  -18.6972   19.2062 C   0  0  0  0  0  0  0  0  0  0  0  0
  -28.0675  -19.5383   19.8210 O   0  0  0  0  0  0  0  0  0  0  0  0
  -24.9194  -19.0437   18.8780 C   0  0  0  0  0  0  0  0  0  0  0  0
  -24.7042  -19.8407   20.2003 C   0  0  0  0  0  0  0  0  0  0  0  0
  -24.8247  -21.3747   19.9896 C   0  0  0  0  0  0  0  0  0  0  0  0
  -23.3096  -19.4969   20.7937 C   0  0  0  0  0  0  0  0  0  0  0  0
  -27.7777  -17.3282   19.2598 N   0  0  0  0  0  0  0  0  0  0  0  0
  -28.8489  -16.8334   20.1198 C   0  0  0  0  0  0  0  0  0  0  0  0
  -30.1928  -16.8591   19.4160 C   0  0  0  0  0  0  0  0  0  0  0  0
  -31.2024  -16.6618   20.0961 O   0  0  0  0  0  0  0  0  0  0  0  0
  -28.5268  -15.3905   20.6146 C   0  0  0  0  0  0  0  0  0  0  0  0
  -28.3986  -14.5102   19.4838 O   0  0  0  0  0  0  0  0  0  0  0  0
  -27.2372  -15.3688   21.4779 C   0  0  0  0  0  0  0  0  0  0  0  0
  -30.3320  -17.3076   18.0749 N   0  0  0  0  0  0  0  0  0  0  0  0
  -31.6247  -17.6931   17.5160 C   0  0  0  0  0  0  0  0  0  0  0  0
  -31.9965  -19.0835   17.9905 C   0  0  0  0  0  0  0  0  0  0  0  0
  -33.1113  -19.2706   18.4799 O   0  0  0  0  0  0  0  0  0  0  0  0
  -31.5780  -17.6109   15.9633 C   0  0  0  0  0  0  0  0  0  0  0  0
  -32.9597  -17.8667   15.3066 C   0  0  0  0  0  0  0  0  0  0  0  0
  -32.8383  -17.6494   13.5294 S   0  0  0  0  0  0  0  0  0  0  0  0
  -34.5551  -18.0163   13.1736 C   0  0  0  0  0  0  0  0  0  0  0  0
  -20.0886   -2.4455    5.5385 N   0  0  0  0  0  0  0  0  0  0  0  0
  -11.5045   -8.2797   -0.4343 N   0  0  0  0  0  0  0  0  0  0  0  0
  -13.6744   -8.3454   -1.3139 N   0  0  0  0  0  0  0  0  0  0  0  0
   -3.3607    7.8001    2.0915 N   0  0  0  0  0  0  0  0  0  0  0  0
   -3.1314    8.4657    4.3258 N   0  0  0  0  0  0  0  0  0  0  0  0
  -31.0666  -20.1466   17.9899 N   0  0  0  0  0  0  0  0  0  0  0  0
  1  2  1  0
  2  3  1  0
  2  5  1  0
  3  4  2  0
  3 10  1  0
  5  6  1  0
  6  7  1  0
  7  8  1  0
  8  9  1  0
  9204  2  0
  9205  1  0
 10 11  1  0
 10 16  1  0
 11 12  1  0
 11 14  1  0
 12 13  2  0
 12 17  1  0
 14 15  1  0
 15 16  1  0
 17 18  1  0
 18 19  1  0
 19 20  2  0
 19 21  1  0
 21 22  1  0
 21 27  1  0
 22 23  1  0
 22 25  1  0
 23 24  2  0
 23 28  1  0
 25 26  1  0
 26 27  1  0
 28 29  1  0
 28 34  1  0
 29 30  1  0
 29 32  1  0
 30 31  2  0
 30 35  1  0
 32 33  1  0
 33 34  1  0
 35 36  1  0
 36 37  1  0
 37 38  2  0
 37 39  1  0
 39 40  1  0
 40 41  1  0
 40 43  1  0
 41 42  2  0
 41 47  1  0
 43 44  1  0
 44 45  1  0
 44 46  1  0
 47 48  1  0
 48 49  1  0
 48 51  1  0
 49 50  2  0
 49 56  1  0
 51 52  1  0
 52 53  1  0
 53 54  2  0
 53 55  1  0
 56 57  1  0
 57 58  1  0
 58 59  2  0
 58 60  1  0
 60 61  1  0
 61 62  1  0
 61 64  1  0
 62 63  2  0
 62 69  1  0
 64 65  1  0
 65 66  1  0
 66 67  1  0
 67 68  1  0
 68202  2  0
 68203  1  0
 69 70  1  0
 70 71  1  0
 70 73  1  0
 71 72  2  0
 71 77  1  0
 73 74  1  0
 74 75  1  0
 74 76  1  0
 77 78  1  0
 78 79  1  0
 78 81  1  0
 79 80  2  0
 79 86  1  0
 81 82  1  0
 82 83  1  0
 83 84  2  0
 83 85  1  0
 86 87  1  0
 87 88  1  0
 87 90  1  0
 88 89  2  0
 88 96  1  0
 90 91  1  0
 91 92  1  0
 92 93  1  0
 93 94  1  0
 94 95  2  0
 94201  1  0
 96 97  1  0
 97 98  1  0
 97100  1  0
 98 99  2  0
 98104  1  0
100101  1  0
101102  1  0
101103  1  0
104105  1  0
105106  1  0
105108  1  0
106107  2  0
106112  1  0
108109  1  0
109110  1  0
109111  1  0
112113  1  0
113114  1  0
113116  1  0
114115  2  0
114121  1  0
116117  1  0
117118  1  0
118119  2  0
118120  1  0
121122  1  0
122123  1  0
122125  1  0
123124  2  0
123126  1  0
126127  1  0
127128  1  0
127130  1  0
128129  2  0
128134  1  0
130131  1  0
131132  2  0
131133  1  0
134135  1  0
135136  1  0
136137  2  0
136138  1  0
138139  1  0
139140  1  0
139142  1  0
140141  2  0
140146  1  0
142143  1  0
143144  2  0
143145  1  0
146147  1  0
147148  1  0
147150  1  0
148149  2  0
148156  1  0
150151  1  0
151153  2  0
151152  1  0
152154  2  0
153155  1  0
154155  1  0
156157  1  0
157158  1  0
157160  1  0
158159  2  0
158161  1  0
161162  1  0
162163  1  0
162165  1  0
163164  2  0
163166  1  0
166167  1  0
167168  1  0
168169  2  0
168170  1  0
170171  1  0
171172  1  0
171174  1  0
172173  2  0
172178  1  0
174175  1  0
174176  1  0
175177  1  0
178179  1  0
179180  1  0
179182  1  0
180181  2  0
180186  1  0
182183  1  0
183184  1  0
183185  1  0
186187  1  0
187188  1  0
187190  1  0
188189  2  0
188193  1  0
190191  1  0
190192  1  0
193194  1  0
194195  1  0
194197  1  0
195196  2  0
195206  1  0
197198  1  0
198199  1  0
199200  1  0
M  END
