
     RDKit          3D

169175  0  0  0  0  0  0  0  0999 V2000
   -3.7700    1.5083    5.2591 N   0  0  0  0  0  0  0  0  0  0  0  0
   -5.1595    1.7420    5.7210 C   0  0  0  0  0  0  0  0  0  0  0  0
   -6.0371    0.5656    5.3488 C   0  0  0  0  0  0  0  0  0  0  0  0
   -6.7224    0.0548    6.2356 O   0  0  0  0  0  0  0  0  0  0  0  0
   -5.7467    3.0739    5.1736 C   0  0  0  0  0  0  0  0  0  0  0  0
   -7.1334    3.3232    5.7155 C   0  0  0  0  0  0  0  0  0  0  0  0
   -6.1728    0.1407    4.0017 N   0  0  0  0  0  0  0  0  0  0  0  0
   -7.0683   -0.9407    3.6048 C   0  0  0  0  0  0  0  0  0  0  0  0
   -6.2637   -2.1010    3.0605 C   0  0  0  0  0  0  0  0  0  0  0  0
   -6.4022   -3.2102    3.5765 O   0  0  0  0  0  0  0  0  0  0  0  0
   -8.1092   -0.4279    2.5703 C   0  0  0  0  0  0  0  0  0  0  0  0
   -9.2087   -1.4440    2.3444 C   0  0  0  0  0  0  0  0  0  0  0  0
   -9.0345   -2.4992    1.4280 C   0  0  0  0  0  0  0  0  0  0  0  0
  -10.3955   -1.3789    3.0998 C   0  0  0  0  0  0  0  0  0  0  0  0
  -10.0368   -3.4695    1.2619 C   0  0  0  0  0  0  0  0  0  0  0  0
  -11.4016   -2.3437    2.9287 C   0  0  0  0  0  0  0  0  0  0  0  0
  -11.2232   -3.3902    2.0094 C   0  0  0  0  0  0  0  0  0  0  0  0
   -5.3996   -1.9403    1.9475 N   0  0  0  0  0  0  0  0  0  0  0  0
   -4.6252   -3.0508    1.4022 C   0  0  0  0  0  0  0  0  0  0  0  0
   -3.4007   -3.3105    2.2556 C   0  0  0  0  0  0  0  0  0  0  0  0
   -3.0948   -4.4786    2.5031 O   0  0  0  0  0  0  0  0  0  0  0  0
   -4.2274   -2.7536   -0.0695 C   0  0  0  0  0  0  0  0  0  0  0  0
   -3.5489   -3.9386   -0.7097 C   0  0  0  0  0  0  0  0  0  0  0  0
   -2.6958   -2.2419    2.8687 N   0  0  0  0  0  0  0  0  0  0  0  0
   -1.5892   -2.4689    3.7926 C   0  0  0  0  0  0  0  0  0  0  0  0
   -2.1217   -2.9372    5.1301 C   0  0  0  0  0  0  0  0  0  0  0  0
   -1.6889   -3.9931    5.5954 O   0  0  0  0  0  0  0  0  0  0  0  0
   -0.7409   -1.1732    3.9422 C   0  0  0  0  0  0  0  0  0  0  0  0
    0.5273   -1.3926    4.8064 C   0  0  0  0  0  0  0  0  0  0  0  0
    1.4833    0.1227    4.8914 S   0  0  0  0  0  0  0  0  0  0  0  0
    2.7974   -0.5388    5.9122 C   0  0  0  0  0  0  0  0  0  0  0  0
   -3.1717   -2.2401    5.7811 N   0  0  0  0  0  0  0  0  0  0  0  0
   -3.7732   -2.7140    7.0227 C   0  0  0  0  0  0  0  0  0  0  0  0
   -5.0613   -3.4285    6.6808 C   0  0  0  0  0  0  0  0  0  0  0  0
   -6.0793   -2.7753    6.4493 O   0  0  0  0  0  0  0  0  0  0  0  0
   -3.9891   -1.5205    7.9998 C   0  0  0  0  0  0  0  0  0  0  0  0
   -4.7258   -1.8952    9.3232 C   0  0  0  0  0  0  0  0  0  0  0  0
   -3.8652   -2.8110   10.2349 C   0  0  0  0  0  0  0  0  0  0  0  0
   -5.1261   -0.6044   10.0892 C   0  0  0  0  0  0  0  0  0  0  0  0
   -5.1209   -4.8421    6.7466 N   0  0  0  0  0  0  0  0  0  0  0  0
   -6.3145   -5.5243    7.2344 C   0  0  0  0  0  0  0  0  0  0  0  0
   -6.1567   -5.7711    8.7211 C   0  0  0  0  0  0  0  0  0  0  0  0
   -5.0554   -6.1221    9.1496 O   0  0  0  0  0  0  0  0  0  0  0  0
   -6.5710   -6.8652    6.4938 C   0  0  0  0  0  0  0  0  0  0  0  0
   -6.9708   -6.6870    5.0032 C   0  0  0  0  0  0  0  0  0  0  0  0
   -5.7618   -6.4607    4.0588 C   0  0  0  0  0  0  0  0  0  0  0  0
   -6.2209   -6.3794    2.6784 N   0  0  0  0  0  0  0  0  0  0  0  0
   -5.5603   -7.0220    1.6009 C   0  0  0  0  0  0  0  0  0  0  0  0
   -7.0733   -5.2272    9.6527 N   0  0  0  0  0  0  0  0  0  0  0  0
   -8.5187   -5.2336    9.4446 C   0  0  0  0  0  0  0  0  0  0  0  0
   -8.9753   -3.8589    8.9949 C   0  0  0  0  0  0  0  0  0  0  0  0
   -8.3826   -2.8632    9.4125 O   0  0  0  0  0  0  0  0  0  0  0  0
   -9.2004   -5.6819   10.7672 C   0  0  0  0  0  0  0  0  0  0  0  0
  -10.9563   -5.9805   10.5615 S   0  0  0  0  0  0  0  0  0  0  0  0
  -10.1638   -3.7163    8.2301 N   0  0  0  0  0  0  0  0  0  0  0  0
  -10.2631   -2.9681    6.9762 C   0  0  0  0  0  0  0  0  0  0  0  0
   -9.7211   -3.8172    5.8396 C   0  0  0  0  0  0  0  0  0  0  0  0
   -8.6438   -3.5100    5.3290 O   0  0  0  0  0  0  0  0  0  0  0  0
   -9.5930   -1.5629    7.0213 C   0  0  0  0  0  0  0  0  0  0  0  0
  -10.2803   -0.6136    8.0354 C   0  0  0  0  0  0  0  0  0  0  0  0
   -9.4129    0.9553    8.0851 S   0  0  0  0  0  0  0  0  0  0  0  0
  -10.4719    1.7170    9.3116 C   0  0  0  0  0  0  0  0  0  0  0  0
  -10.4614   -4.8405    5.1865 N   0  0  0  0  0  0  0  0  0  0  0  0
  -11.6173   -5.5253    5.7568 C   0  0  0  0  0  0  0  0  0  0  0  0
  -11.1849   -6.9004    6.2231 C   0  0  0  0  0  0  0  0  0  0  0  0
  -10.9757   -7.0761    7.4241 O   0  0  0  0  0  0  0  0  0  0  0  0
  -12.7712   -5.5706    4.7116 C   0  0  0  0  0  0  0  0  0  0  0  0
  -14.0648   -6.2881    5.2073 C   0  0  0  0  0  0  0  0  0  0  0  0
  -14.7524   -5.5186    6.3677 C   0  0  0  0  0  0  0  0  0  0  0  0
  -15.0566   -6.4564    4.0234 C   0  0  0  0  0  0  0  0  0  0  0  0
  -11.0539   -7.9861    5.3205 N   0  0  0  0  0  0  0  0  0  0  0  0
  -11.3481   -9.3542    5.7212 C   0  0  0  0  0  0  0  0  0  0  0  0
  -10.2504  -10.2849    5.2725 C   0  0  0  0  0  0  0  0  0  0  0  0
  -10.5262  -11.2167    4.5156 O   0  0  0  0  0  0  0  0  0  0  0  0
   -8.9357  -10.1076    5.7673 N   0  0  0  0  0  0  0  0  0  0  0  0
   -7.8741  -11.0956    5.5941 C   0  0  0  0  0  0  0  0  0  0  0  0
   -7.4455  -11.5922    6.9586 C   0  0  0  0  0  0  0  0  0  0  0  0
   -7.5670  -12.7910    7.2164 O   0  0  0  0  0  0  0  0  0  0  0  0
   -6.6983  -10.4650    4.7977 C   0  0  0  0  0  0  0  0  0  0  0  0
   -5.5595  -11.4746    4.4998 C   0  0  0  0  0  0  0  0  0  0  0  0
   -4.4543  -10.8171    3.6337 C   0  0  0  0  0  0  0  0  0  0  0  0
   -3.3589  -11.7522    3.4165 N   0  0  0  0  0  0  0  0  0  0  0  0
   -2.0799  -11.6089    4.0147 C   0  0  0  0  0  0  0  0  0  0  0  0
   -1.8340  -10.6302    4.8161 N   0  0  0  0  0  0  0  0  0  0  0  0
   -7.0676  -10.6759    7.9745 N   0  0  0  0  0  0  0  0  0  0  0  0
   -7.4215  -10.8903    9.3759 C   0  0  0  0  0  0  0  0  0  0  0  0
   -8.6785  -10.1049    9.7023 C   0  0  0  0  0  0  0  0  0  0  0  0
   -8.7799   -8.9363    9.3236 O   0  0  0  0  0  0  0  0  0  0  0  0
   -6.2182  -10.5694   10.3203 C   0  0  0  0  0  0  0  0  0  0  0  0
   -5.7857   -9.0776   10.3029 C   0  0  0  0  0  0  0  0  0  0  0  0
   -6.5086  -11.0169   11.7797 C   0  0  0  0  0  0  0  0  0  0  0  0
   -9.8113  -10.7872   10.2167 N   0  0  0  0  0  0  0  0  0  0  0  0
  -11.0791  -10.1256   10.5162 C   0  0  0  0  0  0  0  0  0  0  0  0
  -11.3328  -10.0696   12.0135 C   0  0  0  0  0  0  0  0  0  0  0  0
  -12.3209   -9.4516   12.4132 O   0  0  0  0  0  0  0  0  0  0  0  0
  -12.2058  -10.8831    9.7535 C   0  0  0  0  0  0  0  0  0  0  0  0
  -13.5446  -10.1772    9.8100 C   0  0  0  0  0  0  0  0  0  0  0  0
  -14.6421  -10.7892   10.4456 C   0  0  0  0  0  0  0  0  0  0  0  0
  -13.7130   -8.9080    9.2239 C   0  0  0  0  0  0  0  0  0  0  0  0
  -15.8800  -10.1298   10.5244 C   0  0  0  0  0  0  0  0  0  0  0  0
  -14.9544   -8.2547    9.2891 C   0  0  0  0  0  0  0  0  0  0  0  0
  -16.0371   -8.8600    9.9465 C   0  0  0  0  0  0  0  0  0  0  0  0
  -10.3370  -10.4647   12.9465 N   0  0  0  0  0  0  0  0  0  0  0  0
  -10.2761   -9.9593   14.3179 C   0  0  0  0  0  0  0  0  0  0  0  0
   -9.4230   -8.7061   14.3780 C   0  0  0  0  0  0  0  0  0  0  0  0
   -8.6669   -8.4502   13.4380 O   0  0  0  0  0  0  0  0  0  0  0  0
   -9.6673  -11.0487   15.2501 C   0  0  0  0  0  0  0  0  0  0  0  0
  -10.5222  -12.3431   15.2778 C   0  0  0  0  0  0  0  0  0  0  0  0
   -9.9270  -13.3933   16.2498 C   0  0  0  0  0  0  0  0  0  0  0  0
  -10.7901  -14.5646   16.3201 N   0  0  0  0  0  0  0  0  0  0  0  0
  -10.5250  -15.7705   15.6216 C   0  0  0  0  0  0  0  0  0  0  0  0
   -9.5488  -15.8434   14.7837 N   0  0  0  0  0  0  0  0  0  0  0  0
  -11.3575  -16.8928   15.8409 N   0  0  0  0  0  0  0  0  0  0  0  0
   -9.3506   -7.8830   15.5359 N   0  0  0  0  0  0  0  0  0  0  0  0
  -10.4208   -7.7439   16.5244 C   0  0  0  0  0  0  0  0  0  0  0  0
  -11.5515   -6.8623   16.0420 C   0  0  0  0  0  0  0  0  0  0  0  0
  -12.6888   -7.1276   16.4316 O   0  0  0  0  0  0  0  0  0  0  0  0
   -9.7212   -7.1406   17.7738 C   0  0  0  0  0  0  0  0  0  0  0  0
   -8.2176   -7.4210   17.5504 C   0  0  0  0  0  0  0  0  0  0  0  0
   -8.0644   -7.3916   16.0137 C   0  0  0  0  0  0  0  0  0  0  0  0
  -11.2780   -5.6316   15.3857 N   0  0  0  0  0  0  0  0  0  0  0  0
  -12.2185   -4.8796   14.5512 C   0  0  0  0  0  0  0  0  0  0  0  0
  -13.6793   -5.2629   14.7177 C   0  0  0  0  0  0  0  0  0  0  0  0
  -14.3217   -4.6597   15.5800 O   0  0  0  0  0  0  0  0  0  0  0  0
  -11.7406   -4.8735   13.0711 C   0  0  0  0  0  0  0  0  0  0  0  0
  -11.2718   -6.5074   12.5000 S   0  0  0  0  0  0  0  0  0  0  0  0
  -14.3466   -6.1965   13.8769 N   0  0  0  0  0  0  0  0  0  0  0  0
  -15.7852   -6.4451   13.9505 C   0  0  0  0  0  0  0  0  0  0  0  0
  -16.0791   -7.9242   14.1287 C   0  0  0  0  0  0  0  0  0  0  0  0
  -17.2415   -8.3122   13.9946 O   0  0  0  0  0  0  0  0  0  0  0  0
  -16.4696   -5.8911   12.6668 C   0  0  0  0  0  0  0  0  0  0  0  0
  -16.1391   -4.4391   12.4514 C   0  0  0  0  0  0  0  0  0  0  0  0
  -16.5797   -3.3521   13.2271 C   0  0  0  0  0  0  0  0  0  0  0  0
  -15.2644   -3.8813   11.5100 C   0  0  0  0  0  0  0  0  0  0  0  0
  -16.0237   -2.2359   12.7860 N   0  0  0  0  0  0  0  0  0  0  0  0
  -15.2313   -2.5046   11.7657 C   0  0  0  0  0  0  0  0  0  0  0  0
  -14.5034   -4.4526   10.4819 C   0  0  0  0  0  0  0  0  0  0  0  0
  -14.4314   -1.6475   10.9974 C   0  0  0  0  0  0  0  0  0  0  0  0
  -13.7051   -3.5954    9.7018 C   0  0  0  0  0  0  0  0  0  0  0  0
  -13.6668   -2.2100    9.9576 C   0  0  0  0  0  0  0  0  0  0  0  0
  -15.0935   -8.8180   14.6257 N   0  0  0  0  0  0  0  0  0  0  0  0
  -15.3737  -10.2078   14.9770 C   0  0  0  0  0  0  0  0  0  0  0  0
  -15.2729  -10.3770   16.4779 C   0  0  0  0  0  0  0  0  0  0  0  0
  -16.2669  -10.7546   17.1002 O   0  0  0  0  0  0  0  0  0  0  0  0
  -14.3759  -11.1346   14.2293 C   0  0  0  0  0  0  0  0  0  0  0  0
  -14.6681  -12.6430   14.4415 C   0  0  0  0  0  0  0  0  0  0  0  0
  -13.6787  -13.5300   13.7211 C   0  0  0  0  0  0  0  0  0  0  0  0
  -12.9898  -13.0955   12.7967 O   0  0  0  0  0  0  0  0  0  0  0  0
  -13.5425  -14.8837   14.0943 N   0  0  0  0  0  0  0  0  0  0  0  0
  -14.0468  -10.1435   17.1509 N   0  0  0  0  0  0  0  0  0  0  0  0
  -13.7605  -10.6611   18.4834 C   0  0  0  0  0  0  0  0  0  0  0  0
  -13.6025   -9.5057   19.4430 C   0  0  0  0  0  0  0  0  0  0  0  0
  -14.2954   -9.4552   20.4599 O   0  0  0  0  0  0  0  0  0  0  0  0
  -12.4782  -11.5348   18.4153 C   0  0  0  0  0  0  0  0  0  0  0  0
  -12.1469  -12.1825   19.7401 C   0  0  0  0  0  0  0  0  0  0  0  0
  -11.2219  -11.5836   20.6161 C   0  0  0  0  0  0  0  0  0  0  0  0
  -12.7913  -13.3725   20.1269 C   0  0  0  0  0  0  0  0  0  0  0  0
  -10.9337  -12.1756   21.8571 C   0  0  0  0  0  0  0  0  0  0  0  0
  -12.5021  -13.9650   21.3672 C   0  0  0  0  0  0  0  0  0  0  0  0
  -11.5720  -13.3701   22.2366 C   0  0  0  0  0  0  0  0  0  0  0  0
  -11.3093  -13.9579   23.4289 O   0  0  0  0  0  0  0  0  0  0  0  0
  -12.7136   -8.5182   19.1825 O   0  0  0  0  0  0  0  0  0  0  0  0
   -1.0720  -12.5585    3.7269 N   0  0  0  0  0  0  0  0  0  0  0  0
   -4.4440   -7.6383    1.7862 N   0  0  0  0  0  0  0  0  0  0  0  0
   -6.1361   -6.9684    0.3107 N   0  0  0  0  0  0  0  0  0  0  0  0
   -7.2813    3.9309    6.7766 O   0  0  0  0  0  0  0  0  0  0  0  0
   -8.2145    2.9034    5.0167 O   0  0  0  0  0  0  0  0  0  0  0  0
   -2.3202   -3.9797   -0.7837 O   0  0  0  0  0  0  0  0  0  0  0  0
   -4.2955   -4.8994   -1.3021 O   0  0  0  0  0  0  0  0  0  0  0  0
  1  2  1  0
  2  3  1  0
  2  5  1  0
  3  4  2  0
  3  7  1  0
  5  6  1  0
  6166  2  0
  6167  1  0
  7  8  1  0
  8  9  1  0
  8 11  1  0
  9 10  2  0
  9 18  1  0
 11 12  1  0
 12 13  2  0
 12 14  1  0
 13 15  1  0
 14 16  2  0
 15 17  2  0
 16 17  1  0
 18 19  1  0
 19 20  1  0
 19 22  1  0
 20 21  2  0
 20 24  1  0
 22 23  1  0
 23168  2  0
 23169  1  0
 24 25  1  0
 25 26  1  0
 25 28  1  0
 26 27  2  0
 26 32  1  0
 28 29  1  0
 29 30  1  0
 30 31  1  0
 32 33  1  0
 33 34  1  0
 33 36  1  0
 34 35  2  0
 34 40  1  0
 36 37  1  0
 37 38  1  0
 37 39  1  0
 40 41  1  0
 41 42  1  0
 41 44  1  0
 42 43  2  0
 42 49  1  0
 44 45  1  0
 45 46  1  0
 46 47  1  0
 47 48  1  0
 48164  2  0
 48165  1  0
 49 50  1  0
 50 51  1  0
 50 53  1  0
 51 52  2  0
 51 55  1  0
 53 54  1  0
 54126  1  0
 55 56  1  0
 56 57  1  0
 56 59  1  0
 57 58  2  0
 57 63  1  0
 59 60  1  0
 60 61  1  0
 61 62  1  0
 63 64  1  0
 64 65  1  0
 64 67  1  0
 65 66  2  0
 65 71  1  0
 67 68  1  0
 68 69  1  0
 68 70  1  0
 71 72  1  0
 72 73  1  0
 73 74  2  0
 73 75  1  0
 75 76  1  0
 76 77  1  0
 76 79  1  0
 77 78  2  0
 77 85  1  0
 79 80  1  0
 80 81  1  0
 81 82  1  0
 82 83  1  0
 83 84  2  0
 83163  1  0
 85 86  1  0
 86 87  1  0
 86 89  1  0
 87 88  2  0
 87 92  1  0
 89 90  1  0
 89 91  1  0
 92 93  1  0
 93 94  1  0
 93 96  1  0
 94 95  2  0
 94103  1  0
 96 97  1  0
 97 98  2  0
 97 99  1  0
 98100  1  0
 99101  2  0
100102  2  0
101102  1  0
103104  1  0
104105  1  0
104107  1  0
105106  2  0
105114  1  0
107108  1  0
108109  1  0
109110  1  0
110111  1  0
111112  2  0
111113  1  0
114115  1  0
114120  1  0
115116  1  0
115118  1  0
116117  2  0
116121  1  0
118119  1  0
119120  1  0
121122  1  0
122123  1  0
122125  1  0
123124  2  0
123127  1  0
125126  1  0
127128  1  0
128129  1  0
128131  1  0
129130  2  0
129141  1  0
131132  1  0
132133  2  0
132134  1  0
133135  1  0
134136  2  0
134137  1  0
135136  1  0
136138  1  0
137139  2  0
138140  2  0
139140  1  0
141142  1  0
142143  1  0
142145  1  0
143144  2  0
143150  1  0
145146  1  0
146147  1  0
147148  2  0
147149  1  0
150151  1  0
151152  1  0
151154  1  0
152153  2  0
152162  1  0
154155  1  0
155156  2  0
155157  1  0
156158  1  0
157159  2  0
158160  2  0
159160  1  0
160161  1  0
M  END
