
     RDKit          3D

 75 78  0  0  0  0  0  0  0  0999 V2000
   -2.4217    2.5256    1.8712 N   0  0  0  0  0  0  0  0  0  0  0  0
   -3.4511    1.7241    2.4922 C   0  0  0  0  0  0  0  0  0  0  0  0
   -3.8785    0.5850    1.5802 C   0  0  0  0  0  0  0  0  0  0  0  0
   -3.8370   -0.5502    1.9849 O   0  0  0  0  0  0  0  0  0  0  0  0
   -4.6478    2.5906    2.9251 C   0  0  0  0  0  0  0  0  0  0  0  0
   -5.7817    1.6870    3.9801 S   0  0  0  0  0  0  0  0  0  0  0  0
   -4.3129    0.9616    0.3246 N   0  0  0  0  0  0  0  0  0  0  0  0
   -5.0558    0.0900   -0.5702 C   0  0  0  0  0  0  0  0  0  0  0  0
   -4.7008   -1.3939   -0.4911 C   0  0  0  0  0  0  0  0  0  0  0  0
   -5.5860   -2.2163   -0.4701 O   0  0  0  0  0  0  0  0  0  0  0  0
   -4.8156    0.5667   -2.0177 C   0  0  0  0  0  0  0  0  0  0  0  0
   -5.4942   -0.3327   -3.0267 C   0  0  0  0  0  0  0  0  0  0  0  0
   -4.7699   -1.2858   -3.7508 C   0  0  0  0  0  0  0  0  0  0  0  0
   -6.8718   -0.2466   -3.2490 C   0  0  0  0  0  0  0  0  0  0  0  0
   -5.4058   -2.1223   -4.6695 C   0  0  0  0  0  0  0  0  0  0  0  0
   -7.5014   -1.0844   -4.1711 C   0  0  0  0  0  0  0  0  0  0  0  0
   -6.7820   -2.0360   -4.8996 C   0  0  0  0  0  0  0  0  0  0  0  0
   -7.4011   -2.8505   -5.7946 O   0  0  0  0  0  0  0  0  0  0  0  0
   -3.3642   -1.7236   -0.5381 N   0  0  0  0  0  0  0  0  0  0  0  0
   -2.9534   -3.1135   -0.5961 C   0  0  0  0  0  0  0  0  0  0  0  0
   -2.7980   -3.7282    0.7937 C   0  0  0  0  0  0  0  0  0  0  0  0
   -3.0219   -4.9032    0.9702 O   0  0  0  0  0  0  0  0  0  0  0  0
   -1.6187   -3.1924   -1.3632 C   0  0  0  0  0  0  0  0  0  0  0  0
   -1.0561   -4.5958   -1.3728 C   0  0  0  0  0  0  0  0  0  0  0  0
   -0.0373   -4.9674   -0.4870 C   0  0  0  0  0  0  0  0  0  0  0  0
   -1.5582   -5.5579   -2.2557 C   0  0  0  0  0  0  0  0  0  0  0  0
    0.4708   -6.2675   -0.4841 C   0  0  0  0  0  0  0  0  0  0  0  0
   -1.0530   -6.8595   -2.2590 C   0  0  0  0  0  0  0  0  0  0  0  0
   -0.0360   -7.2167   -1.3723 C   0  0  0  0  0  0  0  0  0  0  0  0
   -2.2851   -2.8993    1.7683 N   0  0  0  0  0  0  0  0  0  0  0  0
   -1.8210   -3.4312    3.0354 C   0  0  0  0  0  0  0  0  0  0  0  0
   -2.8437   -3.2267    4.1486 C   0  0  0  0  0  0  0  0  0  0  0  0
   -3.3596   -4.1690    4.7020 O   0  0  0  0  0  0  0  0  0  0  0  0
   -0.4773   -2.7561    3.3753 C   0  0  0  0  0  0  0  0  0  0  0  0
    0.1322   -3.2260    4.7071 C   0  0  0  0  0  0  0  0  0  0  0  0
    1.4381   -2.5243    5.0490 C   0  0  0  0  0  0  0  0  0  0  0  0
    1.9132   -1.6710    4.3396 O   0  0  0  0  0  0  0  0  0  0  0  0
    2.0481   -2.9011    6.2202 N   0  0  0  0  0  0  0  0  0  0  0  0
   -3.0738   -1.9217    4.5308 N   0  0  0  0  0  0  0  0  0  0  0  0
   -3.7748   -1.6312    5.7717 C   0  0  0  0  0  0  0  0  0  0  0  0
   -5.2847   -1.5755    5.5603 C   0  0  0  0  0  0  0  0  0  0  0  0
   -6.0477   -1.6814    6.4900 O   0  0  0  0  0  0  0  0  0  0  0  0
   -3.2150   -0.3227    6.3627 C   0  0  0  0  0  0  0  0  0  0  0  0
   -3.4101   -0.1626    7.8647 C   0  0  0  0  0  0  0  0  0  0  0  0
   -2.4628   -0.0699    8.6081 O   0  0  0  0  0  0  0  0  0  0  0  0
   -4.6941   -0.1075    8.3441 N   0  0  0  0  0  0  0  0  0  0  0  0
   -5.7013   -1.3535    4.2682 N   0  0  0  0  0  0  0  0  0  0  0  0
   -7.1034   -1.1981    3.9375 C   0  0  0  0  0  0  0  0  0  0  0  0
   -7.8506   -2.5383    4.0076 C   0  0  0  0  0  0  0  0  0  0  0  0
   -8.8366   -2.5888    4.7083 O   0  0  0  0  0  0  0  0  0  0  0  0
   -7.2252   -0.4822    2.5785 C   0  0  0  0  0  0  0  0  0  0  0  0
   -7.2726    1.3112    2.6470 S   0  0  0  0  0  0  0  0  0  0  0  0
   -7.3956   -3.6642    3.3375 N   0  0  0  0  0  0  0  0  0  0  0  0
   -8.1298   -4.9149    3.4726 C   0  0  0  0  0  0  0  0  0  0  0  0
   -7.9001   -5.5775    4.8282 C   0  0  0  0  0  0  0  0  0  0  0  0
   -8.6582   -6.4297    5.2288 O   0  0  0  0  0  0  0  0  0  0  0  0
   -7.5323   -5.7494    2.3226 C   0  0  0  0  0  0  0  0  0  0  0  0
   -6.1139   -5.1782    2.1564 C   0  0  0  0  0  0  0  0  0  0  0  0
   -6.3001   -3.6704    2.3931 C   0  0  0  0  0  0  0  0  0  0  0  0
   -6.7961   -5.1457    5.5324 N   0  0  0  0  0  0  0  0  0  0  0  0
   -6.5175   -5.6323    6.8721 C   0  0  0  0  0  0  0  0  0  0  0  0
   -7.3897   -4.9143    7.9017 C   0  0  0  0  0  0  0  0  0  0  0  0
   -7.5861   -5.3936    8.9940 O   0  0  0  0  0  0  0  0  0  0  0  0
   -5.0146   -5.4354    7.1367 C   0  0  0  0  0  0  0  0  0  0  0  0
   -4.5005   -5.9937    8.4720 C   0  0  0  0  0  0  0  0  0  0  0  0
   -2.9836   -5.7859    8.6105 C   0  0  0  0  0  0  0  0  0  0  0  0
   -2.5233   -6.3239    9.8745 N   0  0  0  0  0  0  0  0  0  0  0  0
   -1.3056   -6.8597   10.1022 C   0  0  0  0  0  0  0  0  0  0  0  0
   -0.4502   -6.9880    9.1475 N   0  0  0  0  0  0  0  0  0  0  0  0
   -0.9815   -7.2732   11.4142 N   0  0  0  0  0  0  0  0  0  0  0  0
   -7.9139   -3.7013    7.5086 N   0  0  0  0  0  0  0  0  0  0  0  0
   -8.7865   -2.9424    8.3700 C   0  0  0  0  0  0  0  0  0  0  0  0
  -10.2238   -3.4401    8.2638 C   0  0  0  0  0  0  0  0  0  0  0  0
  -11.1076   -2.8954    8.8865 O   0  0  0  0  0  0  0  0  0  0  0  0
  -10.5207   -4.4889    7.4590 O   0  0  0  0  0  0  0  0  0  0  0  0
  1  2  1  0
  2  3  1  0
  2  5  1  0
  3  4  2  0
  3  7  1  0
  5  6  1  0
  6 52  1  0
  7  8  1  0
  8  9  1  0
  8 11  1  0
  9 10  2  0
  9 19  1  0
 11 12  1  0
 12 13  2  0
 12 14  1  0
 13 15  1  0
 14 16  2  0
 15 17  2  0
 16 17  1  0
 17 18  1  0
 19 20  1  0
 20 21  1  0
 20 23  1  0
 21 22  2  0
 21 30  1  0
 23 24  1  0
 24 25  2  0
 24 26  1  0
 25 27  1  0
 26 28  2  0
 27 29  2  0
 28 29  1  0
 30 31  1  0
 31 32  1  0
 31 34  1  0
 32 33  2  0
 32 39  1  0
 34 35  1  0
 35 36  1  0
 36 37  2  0
 36 38  1  0
 39 40  1  0
 40 41  1  0
 40 43  1  0
 41 42  2  0
 41 47  1  0
 43 44  1  0
 44 45  2  0
 44 46  1  0
 47 48  1  0
 48 49  1  0
 48 51  1  0
 49 50  2  0
 49 53  1  0
 51 52  1  0
 53 54  1  0
 53 59  1  0
 54 55  1  0
 54 57  1  0
 55 56  2  0
 55 60  1  0
 57 58  1  0
 58 59  1  0
 60 61  1  0
 61 62  1  0
 61 64  1  0
 62 63  2  0
 62 71  1  0
 64 65  1  0
 65 66  1  0
 66 67  1  0
 67 68  1  0
 68 69  2  0
 68 70  1  0
 71 72  1  0
 72 73  1  0
 73 74  2  0
 73 75  1  0
M  END
